Circuit: * Z:\home\frohro\Projects\IQ_SDR\Receiver\LTSpice Simualitons\Draft2.asc

WARNING: Node NC_03 is floating.

WARNING: Less than two connections to node NC_01.  This node is used by D1.
WARNING: Less than two connections to node NC_02.  This node is used by D6.
WARNING: Less than two connections to node NC_03.  This node is used by D6.
Direct Newton iteration for .op point succeeded.

Date: Sun Apr 19 08:35:03 2020
Total elapsed time: 0.151 seconds.

tnom = 27
temp = 27
method = modified trap
totiter = 2114
traniter = 2082
tranpoints = 1042
accept = 1042
rejected = 0
matrix size = 14
fillins = 0
solver = Normal
Matrix Compiler1: 706 bytes object code size  0.3/0.2/[0.2]
Matrix Compiler2: off  [0.2]/0.3/0.3

