Circuit: * Z:\home\frohro\Projects\IQ_SDR\Receiver\LTSpice Simualitons\Draft2.asc

WARNING: Node N001 is floating.


Date: Tue Mar 31 16:46:57 2020
Total elapsed time: 0.057 seconds.

tnom = 27
temp = 27
method = trap
totiter = 0
traniter = 0
tranpoints = 0
accept = 0
rejected = 0
matrix size = 13
fillins = 3
solver = Normal

